
 **********************************************
 **** Specfem 2-D Solver - MPI version     ****
 **********************************************

 Running Git version of the code corresponding to fd7926e7eae5f9c0f614cf7d06e56c768ca3a9a4
 dating 2022-12-13 20:03:51 +0100

 There are            1  MPI processes
 Processes are numbered from 0 to            0

 There is a total of            1  slices


 NDIM =            2

 NGLLX =            5
 NGLLZ =            5

 using single precision for the calculations

 smallest and largest possible floating-point numbers are:    1.17549435E-38   3.40282347E+38

 Reading the parameter file...

 Title of the simulation: simple kernel


 Parameter file successfully read

 Reading in SOURCE file...

 Source           1
   Position xs, zs =    1000.0000000000000        2000.0000000000000

   Source type (1=force, 2=moment tensor):            1
   Force source:
   Angle of the source (deg) =    0.0000000000000000

   Time function type (1=Ricker, 2=First derivative, 3=Gaussian, 4=Dirac, 5=Heaviside, 6,7=ocean type, 8=Read from file, 9=burst, 10=Sinusoidal, 11=Ormsby):           1
   Ricker wavelet (second-derivative):
   Frequency, delay =    10.000000000000000        0.0000000000000000
   Multiplying factor  =    10000000000.000000

 all sources are okay



 -------------------------------------------------------------------------------
 -------------------------------------------------------------------------------
 Program SPECFEM2D:
 -------------------------------------------------------------------------------
 -------------------------------------------------------------------------------
 simple kernel
 -------------------------------------------------------------------------------
 -------------------------------------------------------------------------------
 D a t e : 09 - 02 - 2023                                 T i m e  : 17:24:31
 -------------------------------------------------------------------------------
 -------------------------------------------------------------------------------


 C o n t r o l
 =============

     Number of spectral element control nodes. . .(npgeo) =    6561
     Number of space dimensions. . . . . . . . . . (NDIM) =       2


 C o n t r o l
 =============

     Display frequency . . . (NTSTEP_BETWEEN_OUTPUT_INFO) =    400
     Color display . . . . . . . . . . . . . . . (colors) =      1
      == 0     black and white display
      == 1     color display
     Numbered mesh . . . . . . . . . . . . . . .(numbers) =      0
      == 0     do not number the mesh
      == 1     number the mesh


 C o n t r o l
 =============

     Seismograms recording type . . . . . . .(seismotype) = 1
     Angle for first line of receivers. . . . .(anglerec) =   0.00


 C o n t r o l
 =============

     Read external initial field. . . . . .(initialfield) =      F
     Add Bielak conditions (add_Bielak_conditions_bottom) =      F
     Add Bielak conditions .(add_Bielak_conditions_right) =      F
     Add Bielak conditions . .(add_Bielak_conditions_top) =      F
     Add Bielak conditions. .(add_Bielak_conditions_left) =      F
     Attenuation in solid . . .(ATTENUATION_VISCOELASTIC) =      F
     Attenuation in fluid . . (ATTENUATION_VISCOACOUSTIC) =      F
     Save grid in ASCII file or not . (output_grid_ASCII) =      F
     Save a file with total energy or not.(OUTPUT_ENERGY) =      F


 C o n t r o l
 =============

     Vector display type . . . . . . . . .(imagetype_postscript) =      1
     Percentage of cut for vector plots. . . . . . . .(cutsnaps) =   1.00
     Subsampling of velocity model display. (subsamp_postscript) =      1


 I t e r a t i o n s
 ===================

     Number of time iterations . . . . .(NSTEP) =    1800
     Time step increment. . . . . . . . . .(DT) =   1.000000E-03
     Total simulation duration . . . . . (ttot) =   1.800000E+00


 reading mesh databases:
 reading nodal coordinates...

 -- Spectral Elements --


     Number of spectral elements . . . . . . . . .  (nspec) =   6400
     Number of control nodes per element . . . . . (NGNOD) =      4
     Number of points in X-direction . . . . . . . (NGLLX) =      5
     Number of points in Y-direction . . . . . . . (NGLLZ) =      5
     Number of points per element. . . . . . (NGLLX*NGLLZ) =     25
     Number of points for display . . . . . . (pointsdisp) =      6
     Number of element material sets . . . . . . . (numat) =      4
     Number of acoustic forcing elements (nelem_acforcing) =      0
     Number of acoustic free surf (nelem_acoustic_surface) =      0

 reading attenuation setup...
 reading material properties..


 M a t e r i a l   s e t s :   2 D  (p o r o) e l a s t i c i t y
 ======================================================

     Number of material sets . . . . . . (numat) =     4


     ----------------------------------------
     -- Elastic (solid) isotropic material --
     ----------------------------------------
     Material set number. . . . . . . . (jmat) =     1
     P-wave velocity. . . . . . . . . . . (cp) = 3.00000000E+03
     S-wave velocity. . . . . . . . . . . (cs) = 1.80000000E+03
     Mass density. . . . . . . . . . (density) = 2.70000000E+03
     Poisson's ratio. . . . . . . . .(poisson) = 2.18750000E-01
     First Lame parameter Lambda. . . (lambda) = 6.80400000E+09
     Second Lame parameter Mu. . . . . . .(mu) = 8.74800000E+09
     Bulk modulus Kappa . . . . . . . .(kappa) = 1.55520000E+10
     Young's modulus E. . . . . . . . .(young) = 2.21002105E+10
     QKappa_attenuation .  . . . . . .(QKappa) = 9.99900000E+03
     Qmu_attenuation . . . . . . . . . . (Qmu) = 9.99900000E+03



     -------------------------------
     -- Acoustic (fluid) material --
     -------------------------------
     Material set number. . . . . . . . (jmat) =     2
     P-wave velocity. . . . . . . . . . . (cp) = 2.70000000E+03
     Mass density. . . . . . . . . . (density) = 2.50000000E+03
     Bulk modulus Kappa . . . . . . . .(kappa) = 1.82250000E+10
     QKappa_attenuation. . . . . . . .(QKappa) = 9.99900000E+03
     Qmu_attenuation. . . . . . . . . . .(Qmu) = 9.99900000E+03



     ----------------------------------------
     -- Elastic (solid) isotropic material --
     ----------------------------------------
     Material set number. . . . . . . . (jmat) =     3
     P-wave velocity. . . . . . . . . . . (cp) = 2.50000000E+03
     S-wave velocity. . . . . . . . . . . (cs) = 1.44337500E+03
     Mass density. . . . . . . . . . (density) = 2.20000000E+03
     Poisson's ratio. . . . . . . . .(poisson) = 2.50000350E-01
     First Lame parameter Lambda. . . (lambda) = 4.58334188E+09
     Second Lame parameter Mu. . . . . . .(mu) = 4.58332906E+09
     Bulk modulus Kappa . . . . . . . .(kappa) = 9.16667094E+09
     Young's modulus E. . . . . . . . .(young) = 1.17857057E+10
     QKappa_attenuation .  . . . . . .(QKappa) = 9.99900000E+03
     Qmu_attenuation . . . . . . . . . . (Qmu) = 9.99900000E+03



     ----------------------------------------
     -- Elastic (solid) isotropic material --
     ----------------------------------------
     Material set number. . . . . . . . (jmat) =     4
     P-wave velocity. . . . . . . . . . . (cp) = 2.20000000E+03
     S-wave velocity. . . . . . . . . . . (cs) = 1.34337500E+03
     Mass density. . . . . . . . . . (density) = 2.20000000E+03
     Poisson's ratio. . . . . . . . .(poisson) = 2.02726178E-01
     First Lame parameter Lambda. . . (lambda) = 2.70751188E+09
     Second Lame parameter Mu. . . . . . .(mu) = 3.97024406E+09
     Bulk modulus Kappa . . . . . . . .(kappa) = 6.67775594E+09
     Young's modulus E. . . . . . . . .(young) = 9.94066572E+09
     QKappa_attenuation .  . . . . . .(QKappa) = 9.99900000E+03
     Qmu_attenuation . . . . . . . . . . (Qmu) = 9.99900000E+03

 reading interfaces informations...
   number of interfaces         =            0

 reading absorbing boundary...
   Total number of absorbing elements =          320

   any absorbing boundary flag        =  T
   PML boundary flag                  =  F
   Stacey boundary flag               =  T


 Absorbing boundaries:
   using Stacey absorbing boundary conditions

   Total number of absorbing elements:          320
     nspec_left   =           80
     nspec_right  =           80
     nspec_bottom =           80
     nspec_top    =           80


 reading acoustic forcing...
   acoustic forcing                             =  F
   number of acoustic forcing boundary elements =            0

 reading free surface information...
   number of acoustic free surface boundary elements =            0
 reading coupling surfaces...
   number of fluid-solid edges  =            0
   number of fluid-poro  edges  =            0
   number of solid-poro  edges  =            0

 reading tangential curves...
   number of tangential curve nodes =            0

 reading axial elements...
   number of axial elements     =            0

 done reading mesh databases


 Setting up mesh

 Generating global mesh numbering (fast version)...

 Mesh numbering:
   Total number of elements:         6400

   Total number of acoustic elements           =            0
   Total number of elastic/visco/poro elements =         6400

 Approximate total number of grid points in the mesh
 (with a few duplicates coming from MPI buffers):       103041
 Mesh dimensions:
   Xmin,Xmax of the whole mesh =    0.0000000000000000        4000.0000000000000
   Zmin,Zmax of the whole mesh =    0.0000000000000000        4000.0000000000000

 Material properties:
   MODEL                 : default
   nspec                 :         6400
   assign external model :  F

   setting up material arrays
   all material arrays done

 Domains:
   total number of acoustic elements        =            0
   total number of elastic elements         =         6400
   total number of poroelastic elements     =            0

 Setting up MPI communication arrays

   maximum number of MPI interfaces (for a single slice) =            0

   This is a single process simulation, no need for MPI communication

   number of outer elements  =            0
   number of inner elements  =         6400

   percentage of outer elements    0.00000000     %
   percentage of inner elements    100.000000     %

   number of global nodes in outer elements  =            0
   number of global nodes in inner elements  =       103041

   determining communication phases:
   elastic domains:
   total number of outer/inner elements =            0        6400
   total percentage of outer elements    0.00000000     %
   total percentage of inner elements    100.000000     %

 All mesh setup done successfully

 sources:
   Total number of sources:            1


   Setting parameters for source           1

     Source Type. . . . . . . . . . . . . . = Collocated Force
     X-position (meters). . . . . . . . . . =    1.0000000000E+03
     Y-position (meters). . . . . . . . . . =    2.0000000000E+03
     Fundamental frequency (Hz) . . . . . . =    1.0000000000E+01
     Time delay (s) . . . . . . . . . . . . =    0.0000000000E+00
     Multiplying factor . . . . . . . . . . =    1.0000000000E+10
     Angle from vertical direction (deg). . =    0.0000000000E+00



     using USER_T0 . . . . . . . . . =    48.000000000000000
       original t0 . . . . . . . . . =   0.12000000000000000
       min_tshift_src_original . . . =    0.0000000000000000

     fix new simulation start time . =   -48.000000000000000
     source            1 uses tshift =    0.0000000000000000

   Source:            1
     Onset time. . . . . . =   -48.000000000000000
     Fundamental period. . =   0.10000000000000001
     Fundamental frequency =    10.000000000000000
     The onset time is ok

 Source:            1
 *******************************
  locating force source
 *******************************

 Force source:
             original x:    1000.00000
             original z:    2000.00000
 Closest estimate found:    0.00000000      m away
  in rank            0
  in element         3140
  in elastic domain
  at xi,gamma coordinates =    1.0000000000000000        1.0000000000000000


 end of force source detection


 receivers:

 Total number of receivers =            1


 ********************
  locating receivers
 ********************

 reading receiver information from the ./DATA/STATIONS file


 Station #            1     AA      S0001
             original x:    180081.406
             original z:    388768.719
 Closest estimate found:    423144.594      m away
  in rank            0
  in element         6400
  in elastic domain
  at xi,gamma coordinates =    1.0100000000000000        1.0100000000000000
 Distance from source:    426216.125      m

 maximum error in location of all the receivers:    423144.594      m

 end of receiver detection

 found a total of            1  receivers, this is okay


 Preparing timerun:

 Movie simulation:
   color images         - JPEG image type:            3
   number of steps between outputs       :          200

 Preparing image coloring: jpeg
   allocating color image arrays
   locating all the pixels of color images
   total number of image pixels =       580643
   done locating all the pixels of color images
   coloring image background based on vp

 Checking mesh and stability

 ********
 Model: P (or PI) velocity min,max =    3000.0000000000000        3000.0000000000000
 Model: S velocity min,max         =    1800.0000263374484        1800.0000263374484
 Model: density min,max            =    2700.0000000000000        2700.0000000000000
 ********


 *********************************************
 *** Verification of simulation parameters ***
 *********************************************

 *** Max grid size =    50.000000000000000
 *** Min grid size =    50.000000000000000
 *** Max/min ratio =    1.0000000000000000

 *** Minimum GLL point distance  =    8.6336582323005704
 *** Average GLL point distance  =    12.500000000000000

 *** Minimum period resolved     =    3.4722221714169596E-002
 *** Maximum frequency resolved  =    28.800000421399176      Hz

 *** Maximum suggested time step                 =    1.4389430387167618E-003
 *** Maximum suggested (Ricker) source frequency =    11.520000168559671

 *** for DT :    1.00000005E-03
 *** Max CFL stability condition of the time scheme based on P wave velocity (must be below about 0.50 or so) =   0.34747727084867525

 ----
 Number of points per wavelength:
 ----
   Source            1
   maximum dominant source frequency =    25.000000000000000      Hz

   Nb pts / lambdaP_fmax min =    9.60000038
   Nb pts / lambdaP_fmax max =    9.60000038

   Nb pts / lambdaS_fmax min =    5.76000023
   Nb pts / lambdaS_fmax max =    5.76000023

 -----------------------------------------

 histogram of min number of points per S wavelength in solid regions:

 there are         6400  elements out of         6400  in solid regions
   (i.e.,    100.000000     % of the total)

 (too small = poor resolution of calculations -
  too big = wasting memory and CPU time)
 (threshold value is around 4.5 points per S wavelength
  in elastic regions and 5.5 per P wavelength in fluid regions):

   5.70240021      -    5.70815992               0     0.00000000      %
   5.70815992      -    5.71392012               0     0.00000000      %
   5.71392012      -    5.71968031               0     0.00000000      %
   5.71968031      -    5.72544003               0     0.00000000      %
   5.72544003      -    5.73120022               0     0.00000000      %
   5.73120022      -    5.73695993               0     0.00000000      %
   5.73695993      -    5.74272013               0     0.00000000      %
   5.74272013      -    5.74848032               0     0.00000000      %
   5.74848032      -    5.75424004               0     0.00000000      %
   5.75424004      -    5.76000023               0     0.00000000      %
   5.76000023      -    5.76575994            6400     100.000000      %
   5.76575994      -    5.77152014               0     0.00000000      %
   5.77152014      -    5.77727985               0     0.00000000      %
   5.77727985      -    5.78304005               0     0.00000000      %
   5.78304005      -    5.78880024               0     0.00000000      %
   5.78880024      -    5.79455996               0     0.00000000      %
   5.79455996      -    5.80032015               0     0.00000000      %
   5.80032015      -    5.80607986               0     0.00000000      %
   5.80607986      -    5.81184006               0     0.00000000      %
   5.81184006      -    5.81760025               0     0.00000000      %

 total percentage =    100.00000000000000       %


 total number of elements in fluid and solid regions =         6400

 Preparing timerun constants

 Preparing array allocations
   arrays for elastic domains
   done initialization


 Preparing Stacey boundaries
   total number of absorbing boundary faces/edges:          320

 Attenuation:
   viscoelastic  attenuation: F (shear & bulk attenuation in elastic domains)
   viscoacoustic attenuation: F (bulk attenuation in acoustic domains)

 Preparing mass matrices
   initializing mass matrices
   adding Stacey contributions to mass matrix
   inverting mass matrices


 Preparing save forward simulation:
   estimated minimum period resolved by mesh        :    3.47222202E-02
   estimated number of time steps for minimum period:           34
   estimated steps between compute kernels (for a fair reconstruction):            8

   number of steps between compute kernels:            1


 Preparing source time function
   time stepping scheme:   Newmark
   time stepping stages:            1
   time step size      :    1.00000005E-03

   number of time steps:         1800
   number of sources   :            1

   saving the source time function in a text file...

 saving binary database       : ./OUTPUT_FILES/proc000000_data.bin
 saving binary sources info   : ./OUTPUT_FILES/proc000000_sources_info.bin
 saving binary receivers info : ./OUTPUT_FILES/proc000000_receivers_info.bin


 Elapsed time for preparing timerun in seconds =   0.10437006800000000

 ************
  time loop
 ************
               scheme:         Newmark

            time step:    1.00000005E-03  s
 number of time steps:         1800
 total simulated time:    1.79999995      seconds
 start time:  -48.0000000      seconds


 =========================================
 =  T i m e  e v o l u t i o n  l o o p  =
 =========================================


 Starting time iteration loop ...


 ******************************************************************
Time step number       5   t =    0.0040 s out of    1800
 ******************************************************************
 We have done   0.222345755     % of the total
 Max norm of vector field in solid (elastic) =    0.00000000
 Elapsed time in seconds =    2.0999908447265625E-002
 Elapsed time in hh:mm:ss =      0 h 00 m 00 s
 Mean elapsed time per time step in seconds =    4.1999816894531250E-003
 Time steps remaining =         1795
 Estimated remaining time in seconds =    7.5389671325683594
 Estimated remaining time in hh:mm:ss =      0 h 00 m 07 s
 Estimated total run time in seconds =    7.5599670410156250
 Estimated total run time in hh:mm:ss =      0 h 00 m 07 s
 The run will finish approximately on: Thu Feb 09, 2023 17:25

 Creating color image of size          763  x          800  for time step            5
 drawing scalar image of the forward wavefield displacement...
 Color image maximum amplitude =    0.0000000000000000
 Color image created

 Creating color image of size          763  x          800  for time step          200
 drawing scalar image of the forward wavefield displacement...
 Color image maximum amplitude =    0.0000000000000000
 Color image created


 ******************************************************************
Time step number     400   t =    0.3990 s out of    1800
 ******************************************************************
 We have done    22.1789875     % of the total
 Max norm of vector field in solid (elastic) =    0.00000000
 Elapsed time in seconds =    1.9049999713897705
 Elapsed time in hh:mm:ss =      0 h 00 m 01 s
 Mean elapsed time per time step in seconds =    4.7624999284744266E-003
 Time steps remaining =         1400
 Estimated remaining time in seconds =    6.6674998998641968
 Estimated remaining time in hh:mm:ss =      0 h 00 m 06 s
 Estimated total run time in seconds =    8.5724998712539673
 Estimated total run time in hh:mm:ss =      0 h 00 m 08 s
 The run will finish approximately on: Thu Feb 09, 2023 17:25

 Creating color image of size          763  x          800  for time step          400
 drawing scalar image of the forward wavefield displacement...
 Color image maximum amplitude =    0.0000000000000000
 Color image created

 Creating color image of size          763  x          800  for time step          600
 drawing scalar image of the forward wavefield displacement...
 Color image maximum amplitude =    0.0000000000000000
 Color image created


 ******************************************************************
Time step number     800   t =    0.7990 s out of    1800
 ******************************************************************
 We have done    44.4135628     % of the total
 Max norm of vector field in solid (elastic) =    0.00000000
 Elapsed time in seconds =    3.8169999122619629
 Elapsed time in hh:mm:ss =      0 h 00 m 03 s
 Mean elapsed time per time step in seconds =    4.7712498903274532E-003
 Time steps remaining =         1000
 Estimated remaining time in seconds =    4.7712498903274536
 Estimated remaining time in hh:mm:ss =      0 h 00 m 04 s
 Estimated total run time in seconds =    8.5882498025894165
 Estimated total run time in hh:mm:ss =      0 h 00 m 08 s
 The run will finish approximately on: Thu Feb 09, 2023 17:25

 Creating color image of size          763  x          800  for time step          800
 drawing scalar image of the forward wavefield displacement...
 Color image maximum amplitude =    0.0000000000000000
 Color image created


 Total number of time steps done:         1000
 Writing the seismograms by main proc alone took    1.89586205E-03  seconds

 Creating color image of size          763  x          800  for time step         1000
 drawing scalar image of the forward wavefield displacement...
 Color image maximum amplitude =    0.0000000000000000
 Color image created


 ******************************************************************
Time step number    1200   t =    1.1990 s out of    1800
 ******************************************************************
 We have done    66.6481400     % of the total
 Max norm of vector field in solid (elastic) =    0.00000000
 Elapsed time in seconds =    5.8099999427795410
 Elapsed time in hh:mm:ss =      0 h 00 m 05 s
 Mean elapsed time per time step in seconds =    4.8416666189829505E-003
 Time steps remaining =          600
 Estimated remaining time in seconds =    2.9049999713897705
 Estimated remaining time in hh:mm:ss =      0 h 00 m 02 s
 Estimated total run time in seconds =    8.7149999141693115
 Estimated total run time in hh:mm:ss =      0 h 00 m 08 s
 The run will finish approximately on: Thu Feb 09, 2023 17:25

 Creating color image of size          763  x          800  for time step         1200
 drawing scalar image of the forward wavefield displacement...
 Color image maximum amplitude =    0.0000000000000000
 Color image created

 Creating color image of size          763  x          800  for time step         1400
 drawing scalar image of the forward wavefield displacement...
 Color image maximum amplitude =    0.0000000000000000
 Color image created


 ******************************************************************
Time step number    1600   t =    1.5990 s out of    1800
 ******************************************************************
 We have done    88.8827133     % of the total
 Max norm of vector field in solid (elastic) =    0.00000000
 Elapsed time in seconds =    7.7339999675750732
 Elapsed time in hh:mm:ss =      0 h 00 m 07 s
 Mean elapsed time per time step in seconds =    4.8337499797344204E-003
 Time steps remaining =          200
 Estimated remaining time in seconds =   0.96674999594688404
 Estimated remaining time in hh:mm:ss =      0 h 00 m 00 s
 Estimated total run time in seconds =    8.7007499635219574
 Estimated total run time in hh:mm:ss =      0 h 00 m 08 s
 The run will finish approximately on: Thu Feb 09, 2023 17:25

 Creating color image of size          763  x          800  for time step         1600
 drawing scalar image of the forward wavefield displacement...
 Color image maximum amplitude =    0.0000000000000000
 Color image created


 ******************************************************************
Time step number    1800   t =    1.7990 s out of    1800
 ******************************************************************
 We have done    100.000000     % of the total
 Max norm of vector field in solid (elastic) =    0.00000000
 Elapsed time in seconds =    8.7170000076293945
 Elapsed time in hh:mm:ss =      0 h 00 m 08 s
 Mean elapsed time per time step in seconds =    4.8427777820163305E-003
 Time steps remaining =            0
 Estimated remaining time in seconds =    0.0000000000000000
 Estimated remaining time in hh:mm:ss =      0 h 00 m 00 s
 Estimated total run time in seconds =    8.7170000076293945
 Estimated total run time in hh:mm:ss =      0 h 00 m 08 s


 Total number of time steps done:         1800
 Writing the seismograms by main proc alone took    1.37741596E-03  seconds

 Creating color image of size          763  x          800  for time step         1800
 drawing scalar image of the forward wavefield displacement...
 Color image maximum amplitude =    0.0000000000000000
 Color image created


 Total duration of the time loop in seconds =    8.75039005      s
 Total number of time steps =         1800
 Average duration of a time step of the time loop =    4.86132782E-03  s
 Total number of spectral elements in the mesh =         6400
     of which         6400  are regular elements
     and            0  are PML elements.
 Average duration of the calculation per spectral element =    7.59582463E-07  s


 Total duration of the timeloop in seconds, measured using
 date and time of the system :    8.75000000      s

 Saving forward arrays:
 Saving Stacey absorbing boundary contributions...
 Saving elastic last frame...


 -------------------------------------------------------------------------------
 -------------------------------------------------------------------------------
 Program SPECFEM2D:
 -------------------------------------------------------------------------------
 -------------------------------------------------------------------------------
 simple kernel
 -------------------------------------------------------------------------------
 -------------------------------------------------------------------------------
 D a t e : 09 - 02 - 2023                                 T i m e  : 17:24:40
 -------------------------------------------------------------------------------
 -------------------------------------------------------------------------------
